Version 4
SHEET 1 2520 760
WIRE -560 -128 -1072 -128
WIRE 48 -128 -560 -128
WIRE 400 -128 48 -128
WIRE 912 -128 400 -128
WIRE 48 -112 48 -128
WIRE 400 -96 400 -128
WIRE 832 -32 784 -32
WIRE 912 -32 912 -128
WIRE 400 -16 320 -16
WIRE 496 -16 400 -16
WIRE 48 0 48 -32
WIRE 48 0 -32 0
WIRE 144 0 48 0
WIRE 320 32 320 -16
WIRE 496 32 496 -16
WIRE -1072 48 -1072 -128
WIRE -32 48 -32 0
WIRE 144 48 144 0
WIRE -560 64 -560 -128
WIRE 912 64 912 -32
WIRE 912 64 896 64
WIRE 784 80 784 -32
WIRE 832 80 784 80
WIRE 912 96 896 96
WIRE -288 192 -288 160
WIRE -176 192 -176 160
WIRE -32 192 -32 112
WIRE 784 192 784 80
WIRE 832 192 784 192
WIRE 912 192 912 96
WIRE 320 208 320 96
WIRE 496 208 496 96
WIRE 144 224 144 112
WIRE -32 272 -32 256
WIRE 912 272 912 192
WIRE 144 304 144 288
WIRE -1072 320 -1072 128
WIRE -560 320 -560 144
WIRE -560 320 -1072 320
WIRE -528 320 -560 320
WIRE -400 320 -528 320
WIRE -400 352 -400 320
WIRE -288 352 -288 272
WIRE -288 352 -400 352
WIRE -176 352 -176 272
WIRE -176 352 -288 352
WIRE -32 352 -32 272
WIRE -32 352 -176 352
WIRE 144 352 144 304
WIRE 144 352 -32 352
WIRE 320 352 320 288
WIRE 320 352 144 352
WIRE 496 352 496 288
WIRE 496 352 320 352
WIRE 912 352 496 352
FLAG -176 160 vp
FLAG 864 112 vp
FLAG -288 160 vn
FLAG 864 48 vn
FLAG -528 320 0
SYMBOL voltage 144 208 M0
SYMATTR InstName V1
SYMATTR Value {V_1}
SYMBOL voltage -32 288 M180
WINDOW 0 24 96 Left 2
WINDOW 3 24 16 Left 2
SYMATTR InstName V2
SYMATTR Value {V_2}
SYMBOL diode 160 48 M0
SYMATTR InstName D1
SYMATTR Value 1N4148
SYMBOL diode -48 112 M180
WINDOW 0 24 64 Left 2
WINDOW 3 24 0 Left 2
SYMATTR InstName D2
SYMATTR Value 1n4148
SYMBOL res 32 -16 M180
WINDOW 0 36 76 Left 2
WINDOW 3 36 40 Left 2
SYMATTR InstName R1
SYMATTR Value {R_1}
SYMBOL res 928 -48 R90
WINDOW 0 0 56 VBottom 2
WINDOW 3 32 56 VTop 2
SYMATTR InstName R2
SYMATTR Value 820
SYMBOL res 928 176 R90
WINDOW 0 0 56 VBottom 2
WINDOW 3 32 56 VTop 2
SYMATTR InstName R3
SYMATTR Value 820
SYMBOL res 896 256 R0
SYMATTR InstName R4
SYMATTR Value {R_6}
SYMBOL voltage -288 176 M0
WINDOW 0 24 96 Left 2
WINDOW 3 24 16 Left 2
WINDOW 123 0 0 Left 0
WINDOW 39 0 0 Left 0
SYMATTR InstName V4
SYMATTR Value -12
SYMBOL voltage -176 176 M0
WINDOW 0 24 96 Left 2
WINDOW 3 24 16 Left 2
WINDOW 123 0 0 Left 0
WINDOW 39 0 0 Left 0
SYMATTR InstName V5
SYMATTR Value 12
SYMBOL voltage 496 192 M0
WINDOW 123 0 0 Left 0
WINDOW 39 0 0 Left 0
SYMATTR InstName V6
SYMATTR Value {V_3}
SYMBOL voltage 320 304 M180
WINDOW 123 0 0 Left 0
WINDOW 39 0 0 Left 0
SYMATTR InstName V7
SYMATTR Value {V_4}
SYMBOL diode 512 32 M0
SYMATTR InstName D3
SYMATTR Value 1N4148
SYMBOL diode 304 96 M180
WINDOW 0 24 64 Left 2
WINDOW 3 24 0 Left 2
SYMATTR InstName D4
SYMATTR Value 1n4148
SYMBOL res 384 0 M180
WINDOW 0 36 76 Left 2
WINDOW 3 36 40 Left 2
SYMATTR InstName R6
SYMATTR Value {R_2}
SYMBOL res -1088 32 R0
SYMATTR InstName R7
SYMATTR Value {R_s}
SYMBOL OpAmps\\opamp2 864 144 R180
SYMATTR InstName U2
SYMATTR Value TL071
SYMBOL voltage -560 48 R0
SYMATTR InstName V8
SYMATTR Value 1
TEXT -1272 432 Left 2 ;.tran 0 0.01s 0
TEXT -1272 456 Left 2 !.param P=1 V_1=0.616 V_2=0.616 V_3=-0.016 V_4=-0.016 R_1=51 R_2=102 R_6=102 R_s=100*1/(0.25)
TEXT 1728 -704 Left 2 !* TL071 OPERATIONAL AMPLIFIER "MACROMODEL" SUBCIRCUIT\n* CREATED USING PARTS RELEASE 4.01 ON 06/16/89 AT 13:08\n* (REV N/A)      SUPPLY VOLTAGE: +/-15V\n* CONNECTIONS:   NON-INVERTING INPUT\n*                | INVERTING INPUT\n*                | | POSITIVE POWER SUPPLY\n*                | | | NEGATIVE POWER SUPPLY\n*                | | | | OUTPUT\n*                | | | | |\n.SUBCKT TL071    1 2 3 4 5\n*\n  C1   11 12 3.498E-12\n  C2    6  7 15.00E-12\n  DC    5 53 DX\n  DE   54  5 DX\n  DLP  90 91 DX\n  DLN  92 90 DX\n  DP    4  3 DX\n  EGND 99  0 POLY(2) (3,0) (4,0) 0 .5 .5\n  FB    7 99 POLY(5) VB VC VE VLP VLN 0 4.715E6 -5E6 5E6 5E6 -5E6\n  GA    6  0 11 12 282.8E-6\n  GCM   0  6 10 99 8.942E-9\n  ISS   3 10 DC 195.0E-6\n  HLIM 90  0 VLIM 1K\n  J1   11  2 10 JX\n  J2   12  1 10 JX\n  R2    6  9 100.0E3\n  RD1   4 11 3.536E3\n  RD2   4 12 3.536E3\n  RO1   8  5 150\n  RO2   7 99 150\n  RP    3  4 2.143E3\n  RSS  10 99 1.026E6\n  VB    9  0 DC 0\n  VC    3 53 DC 2.200\n  VE   54  4 DC 2.200\n  VLIM  7  8 DC 0\n  VLP  91  0 DC 25\n  VLN   0 92 DC 25\n.MODEL DX D(IS=800.0E-18)\n.MODEL JX PJF(IS=15.00E-12 BETA=270.1E-6 VTO=-1)\n.ENDS
TEXT -1272 392 Left 2 !.dc V8 -1.5 1.5 .01
